test_1
  PyMOL2.5          3D                             0

 49 49  0  0  0  0  0  0  0  0999 V2000
   67.0320   46.5140   32.3460 C   0  0  0  0  0  0  0  0  0  0  0  0
   55.3490   46.9170   29.6220 O   0  0  0  0  0  0  0  0  0  0  0  0
   66.9930   45.4690   33.4930 C   0  0  0  0  0  0  0  0  0  0  0  0
   56.2250   45.0280   30.4830 O   0  5  0  0  0  0  0  0  0  0  0  0
   66.5380   46.0800   34.8200 C   0  0  0  0  0  0  0  0  0  0  0  0
   65.2050   46.8380   34.7180 C   0  0  0  0  0  0  0  0  0  0  0  0
   64.8320   47.3300   33.3150 C   0  0  0  0  0  0  0  0  0  0  0  0
   65.6360   47.1790   32.2150 C   0  0  0  0  0  0  0  0  0  0  0  0
   65.2240   47.6290   30.8790 C   0  0  0  0  0  0  0  0  0  0  0  0
   64.0230   47.3820   30.3190 C   0  0  0  0  0  0  0  0  0  0  0  0
   63.5780   47.7930   28.9840 C   0  0  0  0  0  0  0  0  0  0  0  0
   62.2940   47.6170   28.5860 C   0  0  0  0  0  0  0  0  0  0  0  0
   61.2100   47.0880   29.3980 C   0  0  0  0  0  0  0  0  0  0  0  0
   59.9510   46.9310   28.9560 C   0  0  0  0  0  0  0  0  0  0  0  0
   58.8360   46.4570   29.7720 C   0  0  0  0  0  0  0  0  0  0  0  0
   57.6080   46.4780   29.1970 C   0  0  0  0  0  0  0  0  0  0  0  0
   56.2620   46.0970   29.8410 C   0  0  0  0  0  0  0  0  0  0  0  0
   67.4250   45.7640   31.0480 C   0  0  0  0  0  0  0  0  0  0  0  0
   68.0400   47.6320   32.6840 C   0  0  0  0  0  0  0  0  0  0  0  0
   63.4960   48.0680   33.3020 C   0  0  0  0  0  0  0  0  0  0  0  0
   64.5620   48.4100   28.0020 C   0  0  0  0  0  0  0  0  0  0  0  0
   59.0640   46.0320   31.2280 C   0  0  0  0  0  0  0  0  0  0  0  0
   62.0390   47.9150   27.5780 H   0  0  0  0  0  0  0  0  0  0  0  0
   61.4090   46.8230   30.4190 H   0  0  0  0  0  0  0  0  0  0  0  0
   59.7550   47.1890   27.9260 H   0  0  0  0  0  0  0  0  0  0  0  0
   57.5420   46.8180   28.1710 H   0  0  0  0  0  0  0  0  0  0  0  0
   65.9520   48.1750   30.3050 H   0  0  0  0  0  0  0  0  0  0  0  0
   63.3490   46.8150   30.9350 H   0  0  0  0  0  0  0  0  0  0  0  0
   67.4620   46.4250   30.1820 H   0  0  0  0  0  0  0  0  0  0  0  0
   68.4280   45.3520   31.1330 H   0  0  0  0  0  0  0  0  0  0  0  0
   66.7400   44.9460   30.8190 H   0  0  0  0  0  0  0  0  0  0  0  0
   68.2020   48.2560   31.8140 H   0  0  0  0  0  0  0  0  0  0  0  0
   67.6980   48.2840   33.4870 H   0  0  0  0  0  0  0  0  0  0  0  0
   69.0080   47.2230   32.9720 H   0  0  0  0  0  0  0  0  0  0  0  0
   63.3910   48.7420   32.4540 H   0  0  0  0  0  0  0  0  0  0  0  0
   62.6690   47.3580   33.2910 H   0  0  0  0  0  0  0  0  0  0  0  0
   63.3940   48.6870   34.1940 H   0  0  0  0  0  0  0  0  0  0  0  0
   64.1740   48.4910   26.9850 H   0  0  0  0  0  0  0  0  0  0  0  0
   64.8900   49.3860   28.3560 H   0  0  0  0  0  0  0  0  0  0  0  0
   65.4520   47.7870   27.9610 H   0  0  0  0  0  0  0  0  0  0  0  0
   58.1660   46.0430   31.8400 H   0  0  0  0  0  0  0  0  0  0  0  0
   59.5530   45.0580   31.2720 H   0  0  0  0  0  0  0  0  0  0  0  0
   59.7250   46.7350   31.7320 H   0  0  0  0  0  0  0  0  0  0  0  0
   67.9720   45.0070   33.6240 H   0  0  0  0  0  0  0  0  0  0  0  0
   66.3130   44.6550   33.2330 H   0  0  0  0  0  0  0  0  0  0  0  0
   67.3100   46.7510   35.1970 H   0  0  0  0  0  0  0  0  0  0  0  0
   66.4440   45.3020   35.5760 H   0  0  0  0  0  0  0  0  0  0  0  0
   65.1720   47.6530   35.4430 H   0  0  0  0  0  0  0  0  0  0  0  0
   64.3960   46.1830   35.0360 H   0  0  0  0  0  0  0  0  0  0  0  0
  1  3  1  0  0  0  0
  1  8  1  0  0  0  0
  1 18  1  0  0  0  0
  1 19  1  0  0  0  0
  3  5  1  0  0  0  0
  3 44  1  0  0  0  0
  3 45  1  0  0  0  0
  5  6  1  0  0  0  0
  5 46  1  0  0  0  0
  5 47  1  0  0  0  0
  6  7  1  0  0  0  0
  6 48  1  0  0  0  0
  6 49  1  0  0  0  0
  7  8  2  0  0  0  0
  7 20  1  0  0  0  0
  8  9  1  0  0  0  0
  9 10  2  0  0  0  0
  9 27  1  0  0  0  0
 10 11  1  0  0  0  0
 10 28  1  0  0  0  0
 11 12  2  0  0  0  0
 11 21  1  0  0  0  0
 12 13  1  0  0  0  0
 12 23  1  0  0  0  0
 13 14  2  0  0  0  0
 13 24  1  0  0  0  0
 14 15  1  0  0  0  0
 14 25  1  0  0  0  0
 15 16  2  0  0  0  0
 15 22  1  0  0  0  0
 16 17  1  0  0  0  0
 16 26  1  0  0  0  0
  2 17  1  0  0  0  0
  4 17  2  0  0  0  0
 18 29  1  0  0  0  0
 18 30  1  0  0  0  0
 18 31  1  0  0  0  0
 19 32  1  0  0  0  0
 19 33  1  0  0  0  0
 19 34  1  0  0  0  0
 20 35  1  0  0  0  0
 20 36  1  0  0  0  0
 20 37  1  0  0  0  0
 21 38  1  0  0  0  0
 21 39  1  0  0  0  0
 21 40  1  0  0  0  0
 22 41  1  0  0  0  0
 22 42  1  0  0  0  0
 22 43  1  0  0  0  0
M  END
>  <pdb_header>


$$$$
test_2
  PyMOL2.5          3D                             0

 49 49  0  0  0  0  0  0  0  0999 V2000
   67.0320   46.5140   32.3460 C   0  0  0  0  0  0  0  0  0  0  0  0
   55.3490   46.9170   29.6220 O   0  0  0  0  0  0  0  0  0  0  0  0
   66.9930   45.4690   33.4930 C   0  0  0  0  0  0  0  0  0  0  0  0
   56.2250   45.0280   30.4830 O   0  5  0  0  0  0  0  0  0  0  0  0
   66.5380   46.0800   34.8200 C   0  0  0  0  0  0  0  0  0  0  0  0
   65.2050   46.8380   34.7180 C   0  0  0  0  0  0  0  0  0  0  0  0
   64.8320   47.3300   33.3150 C   0  0  0  0  0  0  0  0  0  0  0  0
   65.6360   47.1790   32.2150 C   0  0  0  0  0  0  0  0  0  0  0  0
   65.2240   47.6290   30.8790 C   0  0  0  0  0  0  0  0  0  0  0  0
   64.0230   47.3820   30.3190 C   0  0  0  0  0  0  0  0  0  0  0  0
   63.5780   47.7930   28.9840 C   0  0  0  0  0  0  0  0  0  0  0  0
   62.2940   47.6170   28.5860 C   0  0  0  0  0  0  0  0  0  0  0  0
   61.2100   47.0880   29.3980 C   0  0  0  0  0  0  0  0  0  0  0  0
   59.9510   46.9310   28.9560 C   0  0  0  0  0  0  0  0  0  0  0  0
   58.8360   46.4570   29.7720 C   0  0  0  0  0  0  0  0  0  0  0  0
   57.6080   46.4780   29.1970 C   0  0  0  0  0  0  0  0  0  0  0  0
   56.2620   46.0970   29.8410 C   0  0  0  0  0  0  0  0  0  0  0  0
   67.4250   45.7640   31.0480 C   0  0  0  0  0  0  0  0  0  0  0  0
   68.0400   47.6320   32.6840 C   0  0  0  0  0  0  0  0  0  0  0  0
   63.4960   48.0680   33.3020 C   0  0  0  0  0  0  0  0  0  0  0  0
   64.5620   48.4100   28.0020 C   0  0  0  0  0  0  0  0  0  0  0  0
   59.0640   46.0320   31.2280 C   0  0  0  0  0  0  0  0  0  0  0  0
   62.0390   47.9150   27.5780 H   0  0  0  0  0  0  0  0  0  0  0  0
   61.4090   46.8230   30.4190 H   0  0  0  0  0  0  0  0  0  0  0  0
   59.7550   47.1890   27.9260 H   0  0  0  0  0  0  0  0  0  0  0  0
   57.5420   46.8180   28.1710 H   0  0  0  0  0  0  0  0  0  0  0  0
   65.9520   48.1750   30.3050 H   0  0  0  0  0  0  0  0  0  0  0  0
   63.3490   46.8150   30.9350 H   0  0  0  0  0  0  0  0  0  0  0  0
   67.4620   46.4250   30.1820 H   0  0  0  0  0  0  0  0  0  0  0  0
   68.4280   45.3520   31.1330 H   0  0  0  0  0  0  0  0  0  0  0  0
   66.7400   44.9460   30.8190 H   0  0  0  0  0  0  0  0  0  0  0  0
   68.2020   48.2560   31.8140 H   0  0  0  0  0  0  0  0  0  0  0  0
   67.6980   48.2840   33.4870 H   0  0  0  0  0  0  0  0  0  0  0  0
   69.0080   47.2230   32.9720 H   0  0  0  0  0  0  0  0  0  0  0  0
   63.3910   48.7420   32.4540 H   0  0  0  0  0  0  0  0  0  0  0  0
   62.6690   47.3580   33.2910 H   0  0  0  0  0  0  0  0  0  0  0  0
   63.3940   48.6870   34.1940 H   0  0  0  0  0  0  0  0  0  0  0  0
   64.1740   48.4910   26.9850 H   0  0  0  0  0  0  0  0  0  0  0  0
   64.8900   49.3860   28.3560 H   0  0  0  0  0  0  0  0  0  0  0  0
   65.4520   47.7870   27.9610 H   0  0  0  0  0  0  0  0  0  0  0  0
   58.1660   46.0430   31.8400 H   0  0  0  0  0  0  0  0  0  0  0  0
   59.5530   45.0580   31.2720 H   0  0  0  0  0  0  0  0  0  0  0  0
   59.7250   46.7350   31.7320 H   0  0  0  0  0  0  0  0  0  0  0  0
   67.9720   45.0070   33.6240 H   0  0  0  0  0  0  0  0  0  0  0  0
   66.3130   44.6550   33.2330 H   0  0  0  0  0  0  0  0  0  0  0  0
   67.3100   46.7510   35.1970 H   0  0  0  0  0  0  0  0  0  0  0  0
   66.4440   45.3020   35.5760 H   0  0  0  0  0  0  0  0  0  0  0  0
   65.1720   47.6530   35.4430 H   0  0  0  0  0  0  0  0  0  0  0  0
   64.3960   46.1830   35.0360 H   0  0  0  0  0  0  0  0  0  0  0  0
  1  3  1  0  0  0  0
  1  8  1  0  0  0  0
  1 18  1  0  0  0  0
  1 19  1  0  0  0  0
  3  5  1  0  0  0  0
  3 44  1  0  0  0  0
  3 45  1  0  0  0  0
  5  6  1  0  0  0  0
  5 46  1  0  0  0  0
  5 47  1  0  0  0  0
  6  7  1  0  0  0  0
  6 48  1  0  0  0  0
  6 49  1  0  0  0  0
  7  8  2  0  0  0  0
  7 20  1  0  0  0  0
  8  9  1  0  0  0  0
  9 10  2  0  0  0  0
  9 27  1  0  0  0  0
 10 11  1  0  0  0  0
 10 28  1  0  0  0  0
 11 12  2  0  0  0  0
 11 21  1  0  0  0  0
 12 13  1  0  0  0  0
 12 23  1  0  0  0  0
 13 14  2  0  0  0  0
 13 24  1  0  0  0  0
 14 15  1  0  0  0  0
 14 25  1  0  0  0  0
 15 16  2  0  0  0  0
 15 22  1  0  0  0  0
 16 17  1  0  0  0  0
 16 26  1  0  0  0  0
  2 17  1  0  0  0  0
  4 17  2  0  0  0  0
 18 29  1  0  0  0  0
 18 30  1  0  0  0  0
 18 31  1  0  0  0  0
 19 32  1  0  0  0  0
 19 33  1  0  0  0  0
 19 34  1  0  0  0  0
 20 35  1  0  0  0  0
 20 36  1  0  0  0  0
 20 37  1  0  0  0  0
 21 38  1  0  0  0  0
 21 39  1  0  0  0  0
 21 40  1  0  0  0  0
 22 41  1  0  0  0  0
 22 42  1  0  0  0  0
 22 43  1  0  0  0  0
M  END
>  <pdb_header>


$$$$
test_3
  PyMOL2.5          3D                             0

 49 49  0  0  0  0  0  0  0  0999 V2000
   67.0320   46.5140   32.3460 C   0  0  0  0  0  0  0  0  0  0  0  0
   55.3490   46.9170   29.6220 O   0  0  0  0  0  0  0  0  0  0  0  0
   66.9930   45.4690   33.4930 C   0  0  0  0  0  0  0  0  0  0  0  0
   56.2250   45.0280   30.4830 O   0  5  0  0  0  0  0  0  0  0  0  0
   66.5380   46.0800   34.8200 C   0  0  0  0  0  0  0  0  0  0  0  0
   65.2050   46.8380   34.7180 C   0  0  0  0  0  0  0  0  0  0  0  0
   64.8320   47.3300   33.3150 C   0  0  0  0  0  0  0  0  0  0  0  0
   65.6360   47.1790   32.2150 C   0  0  0  0  0  0  0  0  0  0  0  0
   65.2240   47.6290   30.8790 C   0  0  0  0  0  0  0  0  0  0  0  0
   64.0230   47.3820   30.3190 C   0  0  0  0  0  0  0  0  0  0  0  0
   63.5780   47.7930   28.9840 C   0  0  0  0  0  0  0  0  0  0  0  0
   62.2940   47.6170   28.5860 C   0  0  0  0  0  0  0  0  0  0  0  0
   61.2100   47.0880   29.3980 C   0  0  0  0  0  0  0  0  0  0  0  0
   59.9510   46.9310   28.9560 C   0  0  0  0  0  0  0  0  0  0  0  0
   58.8360   46.4570   29.7720 C   0  0  0  0  0  0  0  0  0  0  0  0
   57.6080   46.4780   29.1970 C   0  0  0  0  0  0  0  0  0  0  0  0
   56.2620   46.0970   29.8410 C   0  0  0  0  0  0  0  0  0  0  0  0
   67.4250   45.7640   31.0480 C   0  0  0  0  0  0  0  0  0  0  0  0
   68.0400   47.6320   32.6840 C   0  0  0  0  0  0  0  0  0  0  0  0
   63.4960   48.0680   33.3020 C   0  0  0  0  0  0  0  0  0  0  0  0
   64.5620   48.4100   28.0020 C   0  0  0  0  0  0  0  0  0  0  0  0
   59.0640   46.0320   31.2280 C   0  0  0  0  0  0  0  0  0  0  0  0
   62.0390   47.9150   27.5780 H   0  0  0  0  0  0  0  0  0  0  0  0
   61.4090   46.8230   30.4190 H   0  0  0  0  0  0  0  0  0  0  0  0
   59.7550   47.1890   27.9260 H   0  0  0  0  0  0  0  0  0  0  0  0
   57.5420   46.8180   28.1710 H   0  0  0  0  0  0  0  0  0  0  0  0
   65.9520   48.1750   30.3050 H   0  0  0  0  0  0  0  0  0  0  0  0
   63.3490   46.8150   30.9350 H   0  0  0  0  0  0  0  0  0  0  0  0
   67.4620   46.4250   30.1820 H   0  0  0  0  0  0  0  0  0  0  0  0
   68.4280   45.3520   31.1330 H   0  0  0  0  0  0  0  0  0  0  0  0
   66.7400   44.9460   30.8190 H   0  0  0  0  0  0  0  0  0  0  0  0
   68.2020   48.2560   31.8140 H   0  0  0  0  0  0  0  0  0  0  0  0
   67.6980   48.2840   33.4870 H   0  0  0  0  0  0  0  0  0  0  0  0
   69.0080   47.2230   32.9720 H   0  0  0  0  0  0  0  0  0  0  0  0
   63.3910   48.7420   32.4540 H   0  0  0  0  0  0  0  0  0  0  0  0
   62.6690   47.3580   33.2910 H   0  0  0  0  0  0  0  0  0  0  0  0
   63.3940   48.6870   34.1940 H   0  0  0  0  0  0  0  0  0  0  0  0
   64.1740   48.4910   26.9850 H   0  0  0  0  0  0  0  0  0  0  0  0
   64.8900   49.3860   28.3560 H   0  0  0  0  0  0  0  0  0  0  0  0
   65.4520   47.7870   27.9610 H   0  0  0  0  0  0  0  0  0  0  0  0
   58.1660   46.0430   31.8400 H   0  0  0  0  0  0  0  0  0  0  0  0
   59.5530   45.0580   31.2720 H   0  0  0  0  0  0  0  0  0  0  0  0
   59.7250   46.7350   31.7320 H   0  0  0  0  0  0  0  0  0  0  0  0
   67.9720   45.0070   33.6240 H   0  0  0  0  0  0  0  0  0  0  0  0
   66.3130   44.6550   33.2330 H   0  0  0  0  0  0  0  0  0  0  0  0
   67.3100   46.7510   35.1970 H   0  0  0  0  0  0  0  0  0  0  0  0
   66.4440   45.3020   35.5760 H   0  0  0  0  0  0  0  0  0  0  0  0
   65.1720   47.6530   35.4430 H   0  0  0  0  0  0  0  0  0  0  0  0
   64.3960   46.1830   35.0360 H   0  0  0  0  0  0  0  0  0  0  0  0
  1  3  1  0  0  0  0
  1  8  1  0  0  0  0
  1 18  1  0  0  0  0
  1 19  1  0  0  0  0
  3  5  1  0  0  0  0
  3 44  1  0  0  0  0
  3 45  1  0  0  0  0
  5  6  1  0  0  0  0
  5 46  1  0  0  0  0
  5 47  1  0  0  0  0
  6  7  1  0  0  0  0
  6 48  1  0  0  0  0
  6 49  1  0  0  0  0
  7  8  2  0  0  0  0
  7 20  1  0  0  0  0
  8  9  1  0  0  0  0
  9 10  2  0  0  0  0
  9 27  1  0  0  0  0
 10 11  1  0  0  0  0
 10 28  1  0  0  0  0
 11 12  2  0  0  0  0
 11 21  1  0  0  0  0
 12 13  1  0  0  0  0
 12 23  1  0  0  0  0
 13 14  2  0  0  0  0
 13 24  1  0  0  0  0
 14 15  1  0  0  0  0
 14 25  1  0  0  0  0
 15 16  2  0  0  0  0
 15 22  1  0  0  0  0
 16 17  1  0  0  0  0
 16 26  1  0  0  0  0
  2 17  1  0  0  0  0
  4 17  2  0  0  0  0
 18 29  1  0  0  0  0
 18 30  1  0  0  0  0
 18 31  1  0  0  0  0
 19 32  1  0  0  0  0
 19 33  1  0  0  0  0
 19 34  1  0  0  0  0
 20 35  1  0  0  0  0
 20 36  1  0  0  0  0
 20 37  1  0  0  0  0
 21 38  1  0  0  0  0
 21 39  1  0  0  0  0
 21 40  1  0  0  0  0
 22 41  1  0  0  0  0
 22 42  1  0  0  0  0
 22 43  1  0  0  0  0
M  END
>  <pdb_header>


$$$$
